<?xml version="1.0" encoding="UTF-8"?>

<!-- generated on Thu Feb 13 00:19:26 2020 by Eclipse SUMO duarouter Version 1.4.0
<configuration xmlns:xsi="http://www.w3.org/2001/XMLSchema-instance" xsi:noNamespaceSchemaLocation="http://sumo.dlr.de/xsd/duarouterConfiguration.xsd">

    <input>
        <net-file value="mapdemo.net.xml"/>
        <route-files value="trips.trips.xml"/>
    </input>

    <output>
        <output-file value="mapdemo.rou.xml"/>
        <alternatives-output value="mapdemo.rou.alt.xml"/>
    </output>

    <time>
        <begin value="0"/>
        <end value="50.0"/>
    </time>

    <report>
        <no-warnings value="true"/>
        <ignore-errors value="true"/>
        <no-step-log value="true"/>
    </report>

</configuration>
-->

<routes xmlns:xsi="http://www.w3.org/2001/XMLSchema-instance" xsi:noNamespaceSchemaLocation="http://sumo.dlr.de/xsd/routes_file.xsd">
    <vehicle id="0" depart="0.00">
        <route edges="-339445184#3 -339445184#2 -339445184#1 -339445184#0 -75349647#2 -75349647#1 -75349647#0 -339625279 -339625278#7 -339625278#6 -339625278#5 -339625278#4 -339625278#3 -339625278#2 -339625278#1 -339625278#0 -339629621#6 -339629621#5 -339629621#4 -339629621#3 -339629621#2 -339629621#1 -339629621#0 -339629620#9 -339629620#8 -339629620#7 -339629620#6 -339629620#5 -339629620#4 -339629620#3 -339629620#2 -339629620#1 -339629620#0 -203803497 -339629619#1 -339629619#0 -339629618#1 -339629618#0 -75349668#8 -75349668#7 -75349668#6 -75349668#5 -75349668#4 -75349668#3 -75349668#2 -75349668#1 -75349668#0 370165205 26673481 26673482#0 26673482#1 26673482#2 26673482#3 26673482#4 26673482#5 26673482#6 26673482#7 26673482#8 26673482#9 26673482#10 41194522#0 41194522#1 41194522#2 370155439#0 370155439#1 370155439#2 61327004#0 61327004#1 61327004#2 61327004#3 370157457#0 370157457#1 370157457#2 370157459 -370165194#1 -370165194#0 -25492536 -163417773 -370165204 -25492535 25596043 370159547#0 370159547#1 370159540#0 370159540#1 26673489 26673490#0 26673490#1 26673490#2 41592859 71859860#0 71859860#1 327891110 327891109#0 327891109#1 327891109#2 327891109#3 327891109#4 327891109#5 327891111 327891112#0 327891112#1 327891112#2 327891112#3 327891112#4 41592861#0 41592861#1 41592862#0 -169644965#6 -169644965#5 -169644965#4 -169644965#3 -169644965#2 -169644965#1 -169644965#0 -169644964 -322899141#4 -322899141#3 -322899141#2 -322899141#1 -322899141#0 -327891092#12 -327891092#11 -327891092#10 -327891092#9 -327891092#8 -327891092#7 -327891092#6 -327891092#5 -327891092#4 -327891092#3 -327891092#2 -327891092#1 -327891092#0 -70935354 -322899119#12 -322899119#11 -322899119#10 -322899119#9 -322899119#8 -322899119#7 -322899119#6 -322899119#5 -322899119#4 -322899119#3 -322899119#2 -322899119#1 -322899119#0 -322899123#2 -148643591"/>
    </vehicle>
    <vehicle id="1" depart="1.00">
        <route edges="-27555661#1 27555661#1 27555661#2 53577128 170276242#0"/>
    </vehicle>
    <vehicle id="3" depart="3.00">
        <route edges="-370157454#0 -86072065#2 -86072065#1 -86072065#0 -23393253 -370165194#1 -370165194#0 -25492536 -163417773 -370165204 -25492535 25596043 370159547#0 370159547#1 370159540#0 370159540#1 26673489 26673490#0 26673490#1 26673490#2 41592859 71859860#0 71859860#1 327891110 327891109#0 327891109#1 327891109#2 63033746 -63033744#1 -322866723 -322866721 -322866722 -86071746#1 -86071746#0 -86071747 -322866705#3 -322866705#2 -322866705#1 -78254927#2 -78254927#1 -78254927#0 78254942#1 78254942#2 -78254942#4 -78254942#3"/>
    </vehicle>
    <vehicle id="4" depart="4.00">
        <route edges="-74250768#8 -74250768#7 -74250768#6 -74250768#5 -74250768#4 -74250768#3 -74250768#2 -74250768#1 -74250768#0 74250775 192716860 105783322#0 105783322#1 -327891091#8 -327891091#7 -327891091#6 -327891091#5 -327891091#4 -327891091#3 -327891091#2 -327891091#1 -327891091#0 -327891089#13 -327891089#12 -327891089#11 -327891089#10 -327891089#9 -327891089#8 -327891089#7 -327891089#6 -327891089#5 -327891089#4 -327891089#3 -327891089#2 -327891089#1 -327891089#0 -71859837 -327891094#1 -327891094#0 -322899140#6 -322899140#5 -322899140#4 -322899140#3 -322899140#2 -322899140#1 -322899140#0 -70935353#10 -70935353#9 -70935353#8 -70935353#7 -70935353#6 -70935353#5 -70935353#4 -70935353#3 -70935353#2 -70935353#1 -70935353#0 70935354 327891092#0 327891092#1 327891092#2 327891092#3 327891092#4 327891092#5 327891092#6 327891092#7 327891092#8 327891092#9 327891092#10 327891092#11 327891092#12 322899141#0 322899141#1 322899141#2 322899141#3 322899141#4 169644964 169644965#0 495673571#0 495673571#1"/>
    </vehicle>
    <vehicle id="5" depart="5.00">
        <route edges="-150276884 203814570#3 35665559 35665560 339830737#0 339830737#1 339830737#2 339830737#3 339830737#4 339830736 35666489#3 41194520#0 41194520#1 41194520#2 41194520#3 41194520#4 41194520#5 41194520#6 41194520#7 41194520#8 370155438#0 370155438#1 370155438#2 370155438#3 370155438#4 370155438#5 370165205 26673481 26673482#0 26673482#1 26673482#2 26673482#3 26673482#4 26673482#5 26673482#6 26673482#7 26673482#8 26673482#9 26673482#10 41194522#0 41194522#1 41194522#2 370155439#0 370155439#1 370155439#2 61327004#0 61327004#1 61327004#2 61327004#3 370157457#0 370157457#1 370157457#2 370157459 -370165194#1 -370165194#0 -25492536 -163417773 -370165204 -25492535 25596043 370159547#0 370159547#1 370159540#0 370159540#1 26673489 26673490#0 26673490#1 26673490#2 41592859 71859860#0 71859860#1 327891110 327891109#0 327891109#1 327891109#2 63033746 -63033744#1 -322866723 -322866721 -322866722 -86071746#1 -86071746#0 -86071747 -322866705#3 -322866705#2 -322866705#1 -78254927#2 -78254927#1 -78254927#0 78254942#1"/>
    </vehicle>
    <vehicle id="6" depart="6.00">
        <route edges="-72927506#3 -72927506#2 -72927506#1 -72927506#0 -72927511 -35140558#3 -35140558#2 -35140558#1 -35140558#0 35140558#0 35140558#1"/>
    </vehicle>
    <vehicle id="8" depart="8.00">
        <route edges="370158637#2 -370158637#2 -370158637#1 -370158637#0 -370157454#1 -370157454#0 -86072065#2 -86072065#1 -86072065#0 -23393253 -370165194#1 -370165194#0 -25492536 -163417773 -370165204 -25492535 25596043 370159547#0 370159547#1 370159540#0 370159540#1 26673489 26673490#0 26673490#1 26673490#2 41592859 71859860#0 71859860#1 327891110 327891109#0 327891109#1 327891109#2 327891109#3 327891109#4 327891109#5 -327891100#1 -327891100#0 -71859867#8 -71859867#7 -71859867#6 -71859867#5 -71859867#4 -71859867#3 -71859867#2 -71859867#1 -71859867#0 -71859822 -327891098#11 -327891098#10 -327891098#9 -327891098#8 -327891098#7 -327891098#6 -327891098#5 -327891098#4 -327891098#3 -327891098#2 -327891098#1 -327891098#0 -327891101 -169643653#8 -169643653#7 -169643653#6 -169643653#5 -169643653#4 -169643653#3 -169643653#2 -169643653#1 -169643653#0 -71859864#4 -71859864#3 -71859864#2 -71859864#1 -71859864#0 -71859811#6 -71859811#5 -71859811#4 -71859811#3 -71859811#2 -71859811#1 -71859811#0 -169643656 -327891099#6 -327891099#5 -327891099#4 74254327#0 74254327#1 74254327#2 327891105#0 74254332#0 74254332#1"/>
    </vehicle>
    <vehicle id="10" depart="10.00">
        <route edges="327891106#1 327891106#2 327891106#3 327891106#4 327891106#5 327891106#6 327891106#7 327891106#8 327891106#9 327891106#10 327891106#11 327891106#12 327891106#13 322899180#0 322899180#1 322899180#2 322899180#3 322899178#0 322899178#1 322899178#2 322899178#3 322899178#4 322899119#8 322899119#9 322899119#10 322899119#11 322899119#12 70935353#0 70935353#1 70935353#2 70935353#3 70935353#4 70935353#5 70935353#6 70935353#7 70935353#8 70935353#9 70935353#10 322899140#0 322899140#1 322899140#2 322899140#3 322899140#4 322899140#5 322899140#6 327891094#0 327891094#1 71859837 327891089#0 327891089#1 327891089#2 327891089#3 327891089#4 327891089#5 327891089#6 327891089#7 327891089#8 327891089#9 327891089#10 327891089#11 327891089#12 327891089#13 327891091#0 327891091#1 327891091#2 327891091#3 327891091#4 327891091#5 327891091#6 327891091#7 327891091#8 -71859811#6 -71859811#5 -71859811#4 -71859811#3"/>
    </vehicle>
    <vehicle id="11" depart="11.00">
        <route edges="-78254930#3 78254930#3 -78254942#1 78254927#0 78254927#1 78254927#2 -322866705#0 -322866704#1 -322866704#0 -86071743 -86071742#1 -86071742#0 -170029219#1 -170029219#0 -322866711#1 -322866711#0 -322866712 -322866708 -170029216 -322866713 -322866715 -70935362 -41592862#1 -169644965#6 -169644965#5 -169644965#4 -169644965#3 -169644965#2 -169644965#1 -169644965#0 -169644964 -322899141#4 -322899141#3 -322899141#2 -322899141#1 -322899141#0 -327891092#12 -327891092#11 -327891092#10 -327891092#9 -327891092#8 -327891092#7 -327891092#6 -327891092#5 -327891092#4 -327891092#3 -327891092#2 -327891092#1 -327891092#0 -70935354 -322899119#12 -322899119#11 -322899119#10 -322899119#9 -322899119#8 -322899119#7 -322899119#6 -322899119#5 -322899119#4 -322899119#3 -322899119#2 -322899119#1 -322899119#0 -322899123#2 -322899123#1 -322899123#0 -169647824#5 -169647824#4 -169647824#3 -169647824#2 -169647824#1 -169647824#0 -322899139#1 -322899139#0 -169663183#5 -169663183#4 -169663183#3 -169663183#2 -169663183#1 169663183#1 169663183#2 169663183#3"/>
    </vehicle>
    <vehicle id="12" depart="12.00">
        <route edges="60857180 170277692 322781381 -107692479 -86071745 -53577130 86071746#0 86071746#1 322866722 322866721 322866723 -63033744#0 -327891079#3 -327891079#2 -327891079#1 -327891079#0 -63033743#1 -63033743#0 -327891111 -327891100#1 -327891100#0 -71859867#8 -71859867#7 -71859867#6 -71859867#5 -71859867#4 -71859867#3 -71859867#2 -71859867#1 -71859867#0 -71859822 -327891098#11 327891098#11"/>
    </vehicle>
    <vehicle id="13" depart="13.00">
        <route edges="-339444105#22 339444105#22 35666489#0 35666489#1 35666489#2 35666489#3 41194520#0 41194520#1 41194520#2 41194520#3 41194520#4 41194520#5 41194520#6 41194520#7 41194520#8 370155438#0 370155438#1 370155438#2 370155438#3 370155438#4 370155438#5 370165205 26673481 26673482#0 26673482#1 26673482#2 26673482#3 26673482#4 26673482#5 26673482#6 26673482#7 26673482#8 26673482#9 26673482#10 41194522#0 41194522#1 41194522#2 370155439#0 370155439#1 370155439#2 61327004#0 61327004#1 61327004#2 61327004#3 370157457#0 370157457#1 370157457#2 370157459 -370165194#1 -370165194#0 -25492536 -163417773 -370165204 -25492535 25596043 370159547#0 370159547#1 370159540#0 370159540#1 26673489 26673490#0 26673490#1 26673490#2 41592859 71859860#0 71859860#1 327891110 327891109#0 327891109#1 327891109#2 327891109#3 327891109#4 327891109#5 327891111 327891112#0 327891112#1 327891112#2 327891112#3 327891112#4 41592861#0 41592861#1 41592862#0 -169644965#6 -169644965#5 -169644965#4 -169644965#3 -169644965#2 -169644965#1 -169644965#0 -169644964 -322899141#4 -322899141#3 -322899141#2 -322899141#1 -322899141#0 -327891092#12 -327891092#11 -327891092#10 -327891092#9 -327891092#8 -327891092#7 -327891092#6 -327891092#5 -327891092#4 -327891092#3 -327891092#2 -327891092#1 -327891092#0 -70935354 -322899119#12 -322899119#11 -322899119#10 -322899119#9 -322899119#8 -322899119#7 -322899119#6 -322899119#5 -322899119#4 -322899119#3 -322899119#2 -322899119#1 -322899119#0 -322899123#2 -322899123#1 -322899123#0 -169647824#5 -169647824#4 -169647824#3 -169647824#2 -169647824#1 -169647824#0 -322899125"/>
    </vehicle>
    <vehicle id="15" depart="15.00">
        <route edges="-169644965#0 -169644964 -322899141#4 -322899141#3 -322899141#2 -322899141#1 -322899141#0 -327891092#12 -327891092#11 -327891092#10 -327891092#9 -327891092#8 -327891092#7 -327891092#6 -327891092#5 -327891092#4 -327891092#3 -327891092#2 -327891092#1 -327891092#0 -70935354 70935353#0 70935353#1 70935353#2 70935353#3 70935353#4 70935353#5 70935353#6 70935353#7 70935353#8 70935353#9 70935353#10 322899140#0 322899140#1 322899140#2 322899140#3 322899140#4 322899140#5 322899140#6 327891094#0 327891094#1 71859837 327891089#0 327891089#1 327891089#2 327891089#3 327891089#4 327891089#5 327891089#6 327891089#7 327891089#8 327891089#9 327891089#10 327891089#11 327891089#12 327891089#13 327891091#0 327891091#1 327891091#2 327891091#3 327891091#4 327891091#5 327891091#6 327891091#7 327891091#8 -105783322#1 -105783322#0 -192716860 -74250775 74250768#0 74250768#1 74250768#2 74250768#3 74250768#4 74250768#5 74250768#6 74250768#7 74250768#8 74250768#9"/>
    </vehicle>
    <vehicle id="17" depart="17.00">
        <route edges="-322866736 -41592864 -41592863 -41592862#3 -41592862#2 -41592862#1 -41592862#0 -41592861#1 -41592861#0 -327891112#4 -327891112#3 -327891112#2 -327891112#1 -327891112#0 -327891111 -327891109#5 -327891109#4 -327891109#3 -327891109#2 -327891109#1 -327891109#0 -327891110 -71859860#1 -71859860#0 -41592859 -26673490#2 -26673490#1 -26673490#0 -26673489 -370159540#1 -370159540#0 -370159547#1 -370159547#0 -25596043 25492535 370165204 163417773 25492536 370165194#0 24834642#0 24834642#1 24834642#2 24834642#3 24834642#4 26673484 86072062 264170997 41199683 41199684 -41199684 -41199683 -264170997 -86072062"/>
    </vehicle>
    <vehicle id="18" depart="18.00">
        <route edges="118660621#0 118660630 -370158637#3 -370158637#2 -370158637#1 -370158637#0 -370157454#1 -370157454#0 -86072065#2 -86072065#1 -86072065#0 -23393253 -370165194#1 -370165194#0 -25492536 -163417773 -370165204 -25492535 25596043 370159547#0 370159547#1 370159540#0 370159540#1 26673489 26673490#0 26673490#1 26673490#2 41592859 71859860#0 71859860#1 327891110 327891109#0 327891109#1 -264181832#10 -264181832#9 -264181832#8 -264181832#7 -264181832#6 -264181832#5 -264181832#4 -264181832#3 -264181832#2 -264181832#1 -264181832#0 -74244515#6 -74244515#5 -264181828 264181829#1 264181830 264181821 -356377198#0"/>
    </vehicle>
    <vehicle id="19" depart="19.00">
        <route edges="327891106#1 327891106#2 327891106#3 327891106#4 327891106#5 327891106#6 327891106#7 327891106#8 327891106#9 327891106#10 327891106#11 327891106#12 327891106#13 322899180#0 322899180#1 322899180#2 322899180#3 322899178#0 322899178#1 322899178#2 322899178#3 322899178#4 322899119#8 322899119#9 322899119#10 322899119#11 322899119#12 70935353#0 70935353#1 70935353#2 70935353#3 70935353#4 70935353#5 70935353#6 70935353#7 70935353#8 70935353#9 70935353#10 322899140#0 322899140#1 322899140#2 322899140#3 322899140#4 322899140#5 322899140#6 327891094#0 327891094#1 327891095#0 327891095#1 327891095#2 327891095#3 327891095#4 327891095#5 327891095#6 327891095#7 327891095#8 327891095#9 327891095#10"/>
    </vehicle>
    <vehicle id="20" depart="20.00">
        <route edges="41194520#5 41194520#6 41194520#7 41194520#8 370155438#0 370155438#1 370155438#2 370155438#3 370155438#4 370155438#5 370165205 26673481 26673482#0 26673482#1 26673482#2 26673482#3 26673482#4 26673482#5 26673482#6 26673482#7 26673482#8 26673482#9 26673482#10 41194522#0 41194522#1 41194522#2 370155439#0 370155439#1 370155439#2 61327004#0 61327004#1 61327004#2 61327004#3 370157457#0 370157457#1 370157457#2 370157459 -370165194#1 -370165194#0 -25492536 -163417773 -370165204 -25492535 25596043 370159547#0 370159547#1 370159540#0 370159540#1 26673489 26673490#0 26673490#1 26673490#2 41592859 71859860#0 71859860#1 327891110 327891109#0 327891109#1 327891109#2 327891109#3 327891109#4 327891109#5 327891111 327891112#0 327891112#1 327891112#2 327891112#3 327891112#4 41592861#0 41592861#1 41592862#0 -169644965#6 -169644965#5 -169644965#4 -169644965#3 -169644965#2 -169644965#1 -169644965#0 -169644964 -322899141#4 -322899141#3 -322899141#2 -322899141#1 -322899141#0 -327891092#12 -327891092#11 -327891092#10 -327891092#9 -327891092#8 -327891092#7 -327891092#6 -327891092#5 -327891092#4 -327891092#3 -327891092#2 -327891092#1 -327891092#0 -70935354 -322899119#12 -322899119#11 -322899119#10 -322899119#9 -322899119#8 -322899119#7 -322899119#6 -322899119#5 -322899119#4 -322899119#3 -322899119#2 -322899119#1 -322899119#0 -322899123#2 -148643591 -148643558#0 -148643586#0 -148643552#1 -148643550#0"/>
    </vehicle>
    <vehicle id="21" depart="21.00">
        <route edges="75349633 385837063 385837062#0 385837062#1 -203814571#7 -203814571#6 -203814571#5 -203814571#4 -203814571#3 -203814571#2 -203814571#1 -203814571#0 -41200700 -41200697 -203814575#1"/>
    </vehicle>
    <vehicle id="22" depart="22.00">
        <route edges="86071746#1 322866722 322866721 322866723 -63033744#0 63033744#0"/>
    </vehicle>
    <vehicle id="23" depart="23.00">
        <route edges="322866717 -60857179 -322866711#0 -322866712 -322866708 -170029216 -322866713 -322866715 -70935362 -41592862#1 -41592862#0 -41592861#1 -41592861#0 -327891112#4 -327891112#3 -327891112#2 -327891112#1 -327891112#0 -327891111 -327891109#5 -327891109#4 -327891109#3 -327891109#2 -327891109#1 -327891109#0 -327891110 -71859860#1 -27555661#3 53577128 170276242#0 -170276242#0"/>
    </vehicle>
    <vehicle id="24" depart="24.00">
        <route edges="-169647824#0 169647824#0 169647824#1 169647824#2 169647824#3 169647824#4 169647824#5 322899123#0 322899123#1 322899123#2 322899119#0 322899119#1 322899119#2 322899119#3 322899119#4 322899119#5 322899119#6 322899119#7 322899119#8 322899119#9 322899119#10 322899119#11 322899119#12 70935354 327891092#0 327891092#1 327891092#2 327891092#3 327891092#4 327891092#5 327891092#6 327891092#7 327891092#8 327891092#9 327891092#10 327891092#11 327891092#12 322899141#0 322899141#1 322899141#2 322899141#3 322899141#4 169644964 169644965#0 169644965#1 169644965#2 169644965#3 169644965#4 169644965#5 169644965#6 -41592862#0 -41592861#1 -41592861#0 -327891112#4 -327891112#3 -327891112#2 -327891112#1 -327891112#0 -327891111 -327891109#5 -327891109#4 -327891109#3 -327891109#2 -264181832#10 -264181832#9 -264181832#8 -264181832#7 -264181832#6 -264181832#5 -264181832#4 -264181832#3 -264181832#2 -264181832#1 -264181832#0 -74244515#6 -74244515#5 -264181828 264181829#1 264181830 264181821 -356377198#0"/>
    </vehicle>
    <vehicle id="25" depart="25.00">
        <route edges="24834642#2 -24834642#2 -24834642#1 -24834642#0 -370165194#0 -25492536 -163417773 -370165204 -25492535 25596043 370159547#0 370159547#1 370159540#0 370159540#1 26673489 26673490#0 26673490#1 26673490#2 41592859 71859860#0 71859860#1 327891110 327891109#0 327891109#1 327891109#2 63033746 -63033744#1 -322866723 -322866721 -322866722 -86071746#1 -86071746#0 86071746#0"/>
    </vehicle>
    <vehicle id="26" depart="26.00">
        <route edges="-36830914 -36830913 -339442113 339442113 36830913 36830914 339444105#1 339444105#2 339444105#3 339444105#4 339444105#5 339444105#6 339444105#7 339444105#8 339444105#9 339444105#10 339444105#11 339444105#12 339444105#13 339444105#14 339444105#15 339444105#16 339444105#17 339444105#18 339444105#19 339444105#20 339444105#21 339444105#22 35666489#0 35666489#1 35666489#2 35666489#3 41194520#0 41194520#1 41194520#2 41194520#3 41194520#4 41194520#5 41194520#6 41194520#7 41194520#8 370155438#0 370155438#1 370155438#2 370155438#3 370155438#4 370155438#5 370165205 26673481 26673482#0 26673482#1 26673482#2 26673482#3 26673482#4 26673482#5 26673482#6 26673482#7 26673482#8 26673482#9 26673482#10 41194522#0 41194522#1 41194522#2 370155439#0 370155439#1 370155439#2 -370157442#1 -370157442#0 -370157444#1 -370157444#0 -61326999 -370158063 -370157456 -370157451 -61327299#1 -61327299#0"/>
    </vehicle>
    <vehicle id="27" depart="27.00">
        <route edges="-75349668#6 -75349668#5 -75349668#4 -75349668#3 -75349668#2 -75349668#1 -75349668#0 370165205 26673481 26673482#0 26673482#1 26673482#2 26673482#3 26673482#4 26673482#5 26673482#6 26673482#7 26673482#8 26673482#9 26673482#10 41194522#0 41194522#1 41194522#2 370155439#0 370155439#1 370155439#2 61327004#0 61327004#1 61327004#2 61327004#3 370157457#0 370157457#1 370157457#2 370157459 -370165194#1 -370165194#0 -25492536 -163417773 -370165204 -25492535 25596043 370159547#0 370159547#1 370159540#0 370159540#1 26673489 26673490#0 26673490#1 26673490#2 41592859 71859860#0 71859860#1 327891110 327891109#0 327891109#1 327891109#2 327891109#3 327891109#4 327891109#5 327891111 63033743#0 63033743#1 327891079#0 327891079#1 327891079#2 327891079#3 327891079#4 322866703#0 322866703#1 -170018070#1 -63033742 322866702#1 322866700"/>
    </vehicle>
    <vehicle id="28" depart="28.00">
        <route edges="203803508#0 203803508#1 203803508#2 203803508#3 203803508#4 203803508#5 203803508#6 -203803508#6 -203803508#5 -203803508#4 -203803508#3 -203803508#2 -203803508#1 -203803508#0 -339625278#6 -339625278#5 -339625278#4 -339625278#3 -339625278#2 -339625278#1 -339625278#0 -339629621#6 -339629621#5 -339629621#4 -339629621#3 -339629621#2 -339629621#1 -339629621#0 -339629620#9 -339629620#8 -339629620#7 -339629620#6 -339629620#5 -339629620#4 -339629620#3 -339629620#2 -339629620#1 -339629620#0 -203803497 -339629619#1 -339629619#0 -339629618#1 -339629618#0 -75349668#8 -75349668#7 -75349668#6 -75349668#5 -75349668#4 -75349668#3 -75349668#2 -75349668#1 -75349668#0 370165205 26673481 26673482#0 26673482#1 26673482#2 26673482#3 26673482#4 26673482#5 26673482#6 26673482#7 26673482#8 26673482#9 26673482#10 41194522#0 41194522#1 41194522#2 370155439#0 370155439#1 370155439#2 61327004#0 61327004#1 61327004#2 61327004#3 370157457#0 370157457#1 370157457#2 370157459 -370165194#1 -370165194#0 -25492536 -163417773 -370165204 -25492535 25596043 370159547#0 370159547#1 370159540#0 370159540#1 26673489 26673490#0 26673490#1 26673490#2 41592859 71859860#0 71859860#1 327891110 327891109#0 327891109#1 327891109#2 327891109#3 327891109#4 327891109#5 327891111 327891112#0 327891112#1 327891112#2 327891112#3 327891112#4 41592861#0 41592861#1 41592862#0 -169644965#6 -169644965#5 -169644965#4 -169644965#3 -169644965#2 -169644965#1 -169644965#0 -169644964 -322899141#4 -322899141#3 -322899141#2 -322899141#1 -322899141#0 -327891092#12 -327891092#11 -327891092#10 -327891092#9 -327891092#8 -327891092#7 -327891092#6 -327891092#5 -327891092#4 -327891092#3 -327891092#2 -327891092#1 -327891092#0 -70935354 70935353#0 70935353#1 70935353#2 70935353#3 70935353#4 70935353#5 70935353#6 70935353#7 70935353#8 70935353#9 70935353#10 322899140#0 322899140#1 322899140#2 322899140#3 322899140#4 322899140#5"/>
    </vehicle>
    <vehicle id="29" depart="29.00">
        <route edges="-74244515#2 -74244515#1 -74244515#0 -264181831 264181831 74244515#0 74244515#1 74244515#2 74244515#3 74244515#4 74244515#5 74244515#6 264181832#0 264181832#1 264181832#2 264181832#3 264181832#4 264181832#5 264181832#6 264181832#7 264181832#8 264181832#9 264181832#10 -327891109#1 -327891109#0 -327891110 -71859860#1 -71859860#0 -41592859 -26673490#2 -26673490#1 -26673490#0 -26673489 -370159540#1 -370159540#0 -370159547#1 -370159547#0 -25596043 25492535 370165204 163417773 25492536 370165194#0 370165194#1 -370157459 -370157457#2 -370157457#1 -370157457#0 -61327004#3 -61327004#2 -61327004#1 -61327004#0 -370155439#2 41200691 370155454#0 -370155454#0"/>
    </vehicle>
    <vehicle id="30" depart="30.00">
        <route edges="264181831 74244515#0 74244515#1 74244515#2 74244515#3 74244515#4 74244515#5 74244515#6 264181832#0 264181832#1 264181832#2 264181832#3 264181832#4 264181832#5 264181832#6 264181832#7 264181832#8 264181832#9 264181832#10 -327891109#1 -327891109#0 -327891110 -71859860#1 -71859860#0 -41592859 -26673490#2 -26673490#1 -26673490#0 -26673489 -370159540#1 -370159540#0 -370159547#1 -370159547#0 -25596043 25492535 370165204 163417773 25492536 370165194#0 370165194#1 23393253 86072065#0 86072065#1 86072065#2 370157454#0 78378215#0"/>
    </vehicle>
    <vehicle id="31" depart="31.00">
        <route edges="24834642#2 -24834642#2 -24834642#1 -24834642#0 -370165194#0 -25492536 -163417773 -370165204 -25492535 25596043 370159547#0 370159547#1 370159540#0 370159540#1 26673489 26673490#0 26673490#1 26673490#2 41592859 71859860#0 71859860#1 327891110 327891109#0 327891109#1 327891109#2 327891109#3 327891109#4 327891109#5 -327891100#1 -327891100#0 -71859867#8 -71859867#7 -71859867#6 -71859867#5 -71859867#4 -71859867#3 -71859867#2 -71859867#1 -71859867#0 -71859822 -327891098#11 72927520#0 72927520#1 72927520#2 72927520#3 72927520#4 72927520#5 72927520#6 72927520#7 72927520#8"/>
    </vehicle>
    <vehicle id="32" depart="32.00">
        <route edges="322866703#0 322866703#1 -322866703#1 -322866703#0 -327891079#4 -327891079#3 -327891079#2 -327891079#1 -327891079#0 -63033743#1 -63033743#0 -327891111 -327891109#5 -327891109#4 -327891109#3 -327891109#2 -327891109#1 -327891109#0 -327891110 -71859860#1 -71859860#0 -41592859 -26673490#2 -26673490#1 -26673490#0 -26673489 -370159540#1 -370159540#0 -370159547#1 -370159547#0 -25596043 25492535 370165204 163417773 25492536 370165194#0 370165194#1 -370157459 -370157457#2 -370157457#1 -370157457#0 -61327004#3 -61327004#2 -61327004#1 -61327004#0 -370155439#2 41200691 370155454#0 370155454#1 370155454#2 370155559#0 370155559#1 41200694 370155451 203814575#0 203814575#1 41200697 41200700 203814571#0 203814571#1 203814571#2 203814571#3 203814571#4 203814571#5 203814571#6 203814571#7 -385837062#1"/>
    </vehicle>
    <vehicle id="33" depart="33.00">
        <route edges="-322781387 -322781386 322781386 322781387 27555660 27555661#0 27555661#1 27555661#2 27555661#3 -71859860#0 -41592859 -26673490#2 -26673490#1 -26673490#0 -26673489 -370159540#1 -370159540#0 -370159547#1 -370159547#0 -25596043 25492535 370165204 163417773 25492536 370165194#0 24834642#0 24834642#1 24834642#2 24834642#3 24834642#4 86072063 103461849 103461813#0 118660616#0 -118660616#0"/>
    </vehicle>
    <vehicle id="34" depart="34.00">
        <route edges="-322781387 -322781386 322781386 322781387 27555660 27555661#0 27555661#1 27555661#2 27555661#3 71859860#1 327891110 327891109#0 327891109#1 327891109#2 327891109#3 327891109#4 327891109#5 327891111 327891112#0 327891112#1 327891112#2 327891112#3 327891112#4 41592861#0 41592861#1 41592862#0 -169644965#6 -169644965#5 -169644965#4 -169644965#3 -169644965#2 -169644965#1 -169644965#0 -169644964 -322899141#4 -322899141#3 -322899141#2 -322899141#1 -322899141#0 -327891092#12 -327891092#11 -327891092#10 -327891092#9 -327891092#8 -327891092#7 -327891092#6 -327891092#5 -327891092#4 -327891092#3 -327891092#2 -327891092#1 -327891092#0 -70935354 -322899119#12 -322899119#11 -322899119#10 -322899119#9 -322899119#8 -322899119#7 -322899119#6 -322899119#5 -322899119#4 -322899119#3 -322899119#2 -322899119#1 -322899119#0 -322899123#2 -322899123#1 -322899123#0 -169647824#5 148643563#4 148643563#5"/>
    </vehicle>
    <vehicle id="35" depart="35.00">
        <route edges="63033746 63033744#2 -63033744#2"/>
    </vehicle>
    <vehicle id="36" depart="36.00">
        <route edges="-169643656 169643656 -327891095#11 -327891095#10 -327891095#9 -327891095#8 -327891095#7 -327891095#6 -327891095#5 -327891095#4 -327891095#3 -327891095#2 -327891095#1 -327891095#0 -327891094#1 -327891094#0 -322899140#6 -322899140#5 -322899140#4 -322899140#3 -322899140#2 -322899140#1 -322899140#0 -70935353#10 -70935353#9 -70935353#8 -70935353#7 -70935353#6 -70935353#5 -70935353#4 -70935353#3 -70935353#2 -70935353#1 -70935353#0 -322899119#12 -322899119#11 -322899119#10 -322899119#9 -322899119#8 -322899119#7 -322899119#6 -322899119#5 -322899119#4 -322899119#3 -322899119#2 -322899119#1 -322899119#0 -322899123#2 -148643591 -148643558#0 -148643586#0 -148643552#1 148643552#1"/>
    </vehicle>
    <vehicle id="37" depart="37.00">
        <route edges="-517868062 105783322#1 71859864#0 71859864#1 71859864#2 71859864#3 71859864#4 169643653#0 169643653#1 169643653#2 169643653#3 169643653#4 169643653#5 169643653#6 169643653#7 169643653#8 327891101 327891098#0 327891098#1 327891098#2 327891098#3 327891098#4 327891098#5 327891098#6 327891098#7 327891098#8 327891098#9 327891098#10 327891098#11 71859822 71859867#0 71859867#1 71859867#2 71859867#3 71859867#4 71859867#5 71859867#6 71859867#7 71859867#8 327891100#0 327891100#1 327891111 63033743#0 63033743#1 327891079#0 327891079#1 327891079#2 327891079#3 327891079#4 322866703#0 322866703#1 -170029219#1 170029219#1"/>
    </vehicle>
    <vehicle id="38" depart="38.00">
        <route edges="170029219#0 170029219#1 -322866703#1 -322866703#0 -327891079#4 -327891079#3 -327891079#2 -327891079#1 -327891079#0 -63033743#1 -63033743#0 -327891111 -327891109#5 -327891109#4 -327891109#3 -327891109#2 -327891109#1 -327891109#0 -327891110 -71859860#1 -71859860#0 -41592859 -26673490#2 -26673490#1 -26673490#0 -26673489 -370159540#1 -370159540#0 -370159547#1 -370159547#0 -25596043 25492535 370165204 163417773 25492536 370165194#0 370165194#1 -370157459 -370157457#2 -370157457#1 -370157457#0 -61327004#3 -61327004#2 -61327004#1 -61327004#0 -370155439#2 -370155439#1 -370155439#0 -41194522#2 -41194522#1 -41194522#0 -26673482#10 -26673482#9 -26673482#8 -26673482#7 -26673482#6 -26673482#5 -26673482#4 -26673482#3 -26673482#2 -26673482#1 -26673482#0 -26673481 -370165205 -370155438#5 -370155438#4 -370155438#3 -370155438#2 -370155438#1 -370155438#0 -41194520#8 -41194520#7 -41194520#6 -41194520#5 -41194520#4 -41194520#3 -41194520#2 -41194520#1 -41194520#0 -35666489#3 -35666489#2 -35666489#1 -35666489#0 -339444105#22 -339444105#21 -339444105#20 -339444105#19 -339444105#18 -339444105#17 -339444105#16 -339444105#15 -339444105#14 -339444105#13 -339444105#12 -339444105#11 -339444105#10 -339444105#9 -339444105#8 -339444105#7 -339444105#6 -339444105#5 -339444105#4 -339444105#3 -339444105#2 -339444105#1 -36830914 -36830913 -339442113"/>
    </vehicle>
    <vehicle id="39" depart="39.00">