<?xml version="1.0" encoding="UTF-8"?>

<!-- generated on Wed Apr  1 00:54:55 2020 by Eclipse SUMO netedit Version 1.4.0
<configuration xmlns:xsi="http://www.w3.org/2001/XMLSchema-instance" xsi:noNamespaceSchemaLocation="http://sumo.dlr.de/xsd/netconvertConfiguration.xsd">

    <input>
        <sumo-net-file value="/Users/siqiwei/Desktop/sumo-test/remote_control/newedit.net.xml"/>
    </input>

    <output>
        <output-file value="/Users/siqiwei/Desktop/sumo-test/remote_control/newedit.net.xml"/>
    </output>

    <processing>
        <geometry.min-radius.fix.railways value="false"/>
        <geometry.max-grade.fix value="false"/>
        <offset.disable-normalization value="true"/>
        <lefthand value="false"/>
    </processing>

    <junctions>
        <no-turnarounds value="true"/>
        <junctions.corner-detail value="5"/>
        <junctions.limit-turn-speed value="5.5"/>
        <rectangular-lane-cut value="false"/>
    </junctions>

    <pedestrian>
        <walkingareas value="false"/>
    </pedestrian>

    <report>
        <aggregate-warnings value="5"/>
    </report>

</configuration>
-->

<net version="1.3" junctionCornerDetail="5" limitTurnSpeed="5.50" xmlns:xsi="http://www.w3.org/2001/XMLSchema-instance" xsi:noNamespaceSchemaLocation="http://sumo.dlr.de/xsd/net_file.xsd">

    <location netOffset="0.00,0.00" convBoundary="-94.14,43.84,136.59,93.14" origBoundary="-10000000000.00,-10000000000.00,10000000000.00,10000000000.00" projParameter="!"/>

    <edge id=":gneJ22_0" function="internal">
        <lane id=":gneJ22_0_0" index="0" speed="9.05" length="24.23" shape="-87.84,83.15 -93.57,78.94 -95.75,74.43 -94.37,69.61 -89.45,64.49"/>
    </edge>
    <edge id=":gneJ22_1" function="internal">
        <lane id=":gneJ22_1_0" index="0" speed="7.73" length="17.31" shape="-86.32,80.33 -90.41,77.33 -91.97,74.10 -90.99,70.66 -87.47,67.00"/>
    </edge>
    <edge id=":gneJ22_2" function="internal">
        <lane id=":gneJ22_2_0" index="0" speed="3.93" length="3.46" shape="-83.51,72.03 -84.21,72.76 -84.41,73.45 -84.10,74.10 -83.28,74.70"/>
    </edge>
    <edge id=":gneJ22_3" function="internal">
        <lane id=":gneJ22_3_0" index="0" speed="6.14" length="10.39" shape="-85.49,69.52 -87.60,71.71 -88.19,73.78 -87.26,75.71 -84.80,77.51"/>
    </edge>
    <edge id=":gneJ23_0" function="internal">
        <lane id=":gneJ23_0_0" index="0" speed="10.02" length="7.37" shape="-68.27,90.26 -70.72,90.83 -72.50,90.91 -74.21,90.42 -76.46,89.29"/>
        <lane id=":gneJ23_0_1" index="1" speed="8.54" length="7.37" shape="-69.09,87.17 -70.84,87.57 -72.11,87.63 -73.33,87.28 -74.94,86.47"/>
    </edge>
    <edge id=":gneJ23_2" function="internal">
        <lane id=":gneJ23_2_0" index="0" speed="4.26" length="2.46" shape="-71.90,80.84 -71.58,81.00 -71.33,81.07 -71.08,81.06 -70.73,80.98"/>
        <lane id=":gneJ23_2_1" index="1" speed="6.75" length="2.46" shape="-73.42,83.66 -72.46,84.14 -71.72,84.35 -70.96,84.32 -69.91,84.07"/>
    </edge>
    <edge id=":gneJ24_0" function="internal">
        <lane id=":gneJ24_0_0" index="0" speed="13.89" length="18.58" shape="-34.56,83.41 -39.93,83.50 -43.60,83.87 -47.22,84.67 -52.43,86.06"/>
        <lane id=":gneJ24_0_1" index="1" speed="13.89" length="18.58" shape="-34.56,80.21 -40.18,80.30 -44.02,80.68 -47.80,81.51 -53.25,82.96"/>
    </edge>
    <edge id=":gneJ24_2" function="internal">
        <lane id=":gneJ24_2_0" index="0" speed="10.63" length="6.13" shape="-34.56,80.21 -39.03,79.50 -40.42,78.71"/>
    </edge>
    <edge id=":gneJ24_8" function="internal">
        <lane id=":gneJ24_8_0" index="0" speed="10.63" length="12.95" shape="-40.42,78.71 -42.80,77.36 -45.88,73.81 -48.25,68.83"/>
    </edge>
    <edge id=":gneJ24_3" function="internal">
        <lane id=":gneJ24_3_0" index="0" speed="2.95" length="11.18" shape="-42.22,66.68 -40.79,69.80 -39.04,72.03 -36.96,73.36 -34.56,73.81"/>
    </edge>
    <edge id=":gneJ24_4" function="internal">
        <lane id=":gneJ24_4_0" index="0" speed="7.95" length="19.99" shape="-45.24,67.75 -44.14,73.19 -45.11,77.54 -48.15,80.79 -53.25,82.96"/>
    </edge>
    <edge id=":gneJ24_5" function="internal">
        <lane id=":gneJ24_5_0" index="0" speed="6.33" length="9.04" shape="-54.89,76.78 -52.58,75.80 -51.21,74.32 -50.77,72.36 -51.27,69.90"/>
    </edge>
    <edge id=":gneJ24_6" function="internal">
        <lane id=":gneJ24_6_0" index="0" speed="11.89" length="20.24" shape="-54.89,76.78 -49.04,75.23 -44.85,74.33 -40.59,73.91 -34.56,73.81"/>
        <lane id=":gneJ24_6_1" index="1" speed="11.89" length="20.24" shape="-54.07,79.87 -48.38,78.36 -44.43,77.49 -40.42,77.10 -34.56,77.01"/>
    </edge>
    <edge id=":gneJ25_0" function="internal">
        <lane id=":gneJ25_0_0" index="0" speed="13.89" length="29.82" shape="24.36,83.75 -5.43,83.41"/>
        <lane id=":gneJ25_0_1" index="1" speed="13.89" length="29.82" shape="24.41,80.55 -5.43,80.21"/>
    </edge>
    <edge id=":gneJ25_2" function="internal">
        <lane id=":gneJ25_2_0" index="0" speed="7.69" length="23.14" shape="24.41,80.55 18.91,78.54 16.69,73.87 17.77,68.30 22.19,63.61"/>
    </edge>
    <edge id=":gneJ25_3" function="internal">
        <lane id=":gneJ25_3_0" index="0" speed="5.23" length="9.69" shape="25.49,69.10 22.33,71.27 21.12,72.84 21.84,73.80 24.50,74.15"/>
    </edge>
    <edge id=":gneJ25_4" function="internal">
        <lane id=":gneJ25_4_0" index="0" speed="13.89" length="33.59" shape="25.49,69.10 18.44,73.51 10.56,78.19 2.41,81.90 -5.43,83.41"/>
        <lane id=":gneJ25_4_1" index="1" speed="13.89" length="33.59" shape="23.84,66.36 17.05,70.69 9.74,75.21 2.15,78.77 -5.43,80.21"/>
    </edge>
    <edge id=":gneJ25_6" function="internal">
        <lane id=":gneJ25_6_0" index="0" speed="3.89" length="29.43" shape="-5.43,73.81 1.64,72.51 8.09,69.27 14.27,65.07 20.54,60.87"/>
    </edge>
    <edge id=":gneJ25_7" function="internal">
        <lane id=":gneJ25_7_0" index="0" speed="2.89" length="29.91" shape="-5.43,73.81 24.50,74.15"/>
        <lane id=":gneJ25_7_1" index="1" speed="2.89" length="29.91" shape="-5.43,77.01 24.46,77.35"/>
    </edge>
    <edge id=":gneJ26_0" function="internal">
        <lane id=":gneJ26_0_0" index="0" speed="13.89" length="32.62" shape="53.65,96.37 46.69,92.64 39.46,88.54 32.05,85.20 24.56,83.76"/>
        <lane id=":gneJ26_0_1" index="1" speed="13.89" length="32.62" shape="55.00,93.47 47.83,89.70 40.15,85.49 32.30,82.04 24.61,80.56"/>
    </edge>
    <edge id=":gneJ26_2" function="internal">
        <lane id=":gneJ26_2_0" index="0" speed="7.66" length="23.81" shape="55.00,93.47 50.48,89.13 49.83,83.53 52.63,78.63 58.48,76.41"/>
    </edge>
    <edge id=":gneJ26_3" function="internal">
        <lane id=":gneJ26_3_0" index="0" speed="5.60" length="11.81" shape="58.69,82.80 54.61,83.24 53.08,84.19 54.11,85.67 57.70,87.67"/>
    </edge>
    <edge id=":gneJ26_4" function="internal">
        <lane id=":gneJ26_4_0" index="0" speed="13.89" length="34.07" shape="58.69,82.80 24.56,83.76"/>
        <lane id=":gneJ26_4_1" index="1" speed="13.89" length="34.07" shape="58.59,79.60 24.61,80.56"/>
    </edge>
    <edge id=":gneJ26_6" function="internal">
        <lane id=":gneJ26_6_0" index="0" speed="2.89" length="33.77" shape="24.70,74.16 58.38,73.21"/>
        <lane id=":gneJ26_6_1" index="1" speed="2.89" length="33.77" shape="24.66,77.36 58.48,76.41"/>
    </edge>
    <edge id=":gneJ26_8" function="internal">
        <lane id=":gneJ26_8_0" index="0" speed="7.89" length="34.57" shape="24.66,77.36 32.55,78.89 40.85,82.44 48.98,86.75 56.35,90.57"/>
    </edge>
    <edge id=":gneJ27_0" function="internal">
        <lane id=":gneJ27_0_0" index="0" speed="11.69" length="4.77" shape="59.98,97.84 58.34,97.91 57.20,97.82 56.11,97.48 54.61,96.81"/>
        <lane id=":gneJ27_0_1" index="1" speed="9.95" length="4.77" shape="59.79,94.64 58.62,94.69 57.81,94.63 57.03,94.39 55.95,93.91"/>
    </edge>
    <edge id=":gneJ27_2" function="internal">
        <lane id=":gneJ27_2_0" index="0" speed="13.89" length="1.59" shape="58.65,88.11 58.86,88.20 59.02,88.25 59.18,88.26 59.42,88.25"/>
        <lane id=":gneJ27_2_1" index="1" speed="7.82" length="1.59" shape="57.30,91.01 57.95,91.30 58.41,91.44 58.90,91.48 59.60,91.45"/>
    </edge>
    <edge id=":gneJ28_0" function="internal">
        <lane id=":gneJ28_0_0" index="0" speed="13.89" length="0.69" shape="76.17,82.28 76.07,82.26 76.00,82.25 75.93,82.25 75.83,82.25"/>
        <lane id=":gneJ28_0_1" index="1" speed="13.89" length="0.69" shape="76.75,79.13 76.45,79.07 76.24,79.05 76.03,79.04 75.72,79.05"/>
    </edge>
    <edge id=":gneJ28_2" function="internal">
        <lane id=":gneJ28_2_0" index="0" speed="8.89" length="2.06" shape="75.52,72.65 76.23,72.64 76.72,72.65 77.21,72.71 77.91,72.83"/>
        <lane id=":gneJ28_2_1" index="1" speed="8.89" length="2.06" shape="75.62,75.85 76.13,75.84 76.48,75.85 76.83,75.89 77.33,75.98"/>
    </edge>
    <edge id=":gneJ31_0" function="internal">
        <lane id=":gneJ31_0_0" index="0" speed="13.89" length="1.75" shape="50.83,54.14 50.57,54.14 50.39,54.17 50.23,54.24 50.00,54.37"/>
        <lane id=":gneJ31_0_1" index="1" speed="7.49" length="1.75" shape="50.82,50.94 50.05,50.95 49.52,51.03 49.02,51.24 48.36,51.62"/>
    </edge>
    <edge id=":gneJ31_2" function="internal">
        <lane id=":gneJ31_2_0" index="0" speed="8.89" length="5.24" shape="45.06,46.14 46.62,45.24 47.78,44.76 49.02,44.57 50.82,44.54"/>
        <lane id=":gneJ31_2_1" index="1" speed="8.89" length="5.24" shape="46.71,48.88 47.82,48.24 48.65,47.90 49.53,47.76 50.82,47.74"/>
    </edge>
    <edge id=":gneJ33_0" function="internal">
        <lane id=":gneJ33_0_0" index="0" speed="3.92" length="3.25" shape="-56.98,53.84 -57.42,53.01 -57.98,52.61 -58.67,52.65 -59.48,53.12"/>
    </edge>
    <edge id=":gneJ33_1" function="internal">
        <lane id=":gneJ33_1_0" index="0" speed="6.10" length="9.76" shape="-53.97,52.77 -55.28,50.27 -56.96,49.08 -59.02,49.19 -61.46,50.61"/>
    </edge>
    <edge id=":gneJ33_2" function="internal">
        <lane id=":gneJ33_2_0" index="0" speed="7.95" length="22.78" shape="-65.42,45.58 -59.73,42.28 -54.92,42.02 -50.99,44.80 -47.94,50.62"/>
    </edge>
    <edge id=":gneJ33_3" function="internal">
        <lane id=":gneJ33_3_0" index="0" speed="7.69" length="16.27" shape="-63.44,48.09 -59.38,45.73 -55.94,45.55 -53.14,47.54 -50.95,51.69"/>
    </edge>
    <edge id=":gneJ34_0" function="internal">
        <lane id=":gneJ34_0_0" index="0" speed="4.15" length="1.34" shape="99.52,54.62 99.27,54.39 98.99,54.22 98.68,54.13 98.33,54.09"/>
    </edge>
    <edge id=":gneJ34_1" function="internal">
        <lane id=":gneJ34_1_0" index="0" speed="6.54" length="4.02" shape="101.90,52.48 101.14,51.78 100.29,51.29 99.36,50.99 98.33,50.89"/>
    </edge>
    <edge id=":gneJ34_2" function="internal">
        <lane id=":gneJ34_2_0" index="0" speed="9.70" length="9.38" shape="98.32,44.49 100.72,44.72 102.90,45.42 104.88,46.57 106.65,48.19"/>
    </edge>
    <edge id=":gneJ34_3" function="internal">
        <lane id=":gneJ34_3_0" index="0" speed="8.27" length="6.70" shape="98.33,47.69 100.04,47.86 101.60,48.35 103.01,49.18 104.28,50.33"/>
    </edge>
    <edge id=":gneJ35_0" function="internal">
        <lane id=":gneJ35_0_0" index="0" speed="13.81" length="67.24" shape="124.84,68.35 129.72,81.11 120.36,89.48 102.06,94.37 80.10,96.66"/>
    </edge>
    <edge id=":gneJ35_1" function="internal">
        <lane id=":gneJ35_1_0" index="0" speed="13.00" length="59.39" shape="122.47,70.49 125.76,80.70 116.73,87.47 99.93,91.49 79.91,93.46"/>
    </edge>
    <edge id=":gneJ35_2" function="internal">
        <lane id=":gneJ35_2_0" index="0" speed="11.94" length="12.40" shape="122.47,70.49 125.70,79.76 123.25,80.62"/>
    </edge>
    <edge id=":gneJ35_8" function="internal">
        <lane id=":gneJ35_8_0" index="0" speed="11.94" length="43.53" shape="123.25,80.62 116.03,83.17 99.05,82.57 80.37,79.80"/>
    </edge>
    <edge id=":gneJ35_3" function="internal">
        <lane id=":gneJ35_3_0" index="0" speed="10.01" length="38.79" shape="81.53,73.50 99.55,76.49 111.59,77.70 117.64,77.13 117.72,74.78"/>
    </edge>
    <edge id=":gneJ35_4" function="internal">
        <lane id=":gneJ35_4_0" index="0" speed="7.30" length="23.49" shape="80.95,76.65 85.99,79.92 87.39,85.49 85.31,90.84 79.91,93.46"/>
    </edge>
    <edge id=":gneJ35_5" function="internal">
        <lane id=":gneJ35_5_0" index="0" speed="6.43" length="17.73" shape="79.54,87.07 86.00,86.44 88.20,85.54 86.13,84.37 79.79,82.94"/>
    </edge>
    <edge id=":gneJ35_6" function="internal">
        <lane id=":gneJ35_6_0" index="0" speed="11.33" length="44.74" shape="79.54,87.07 99.47,85.28 112.48,82.63 118.56,79.13 117.72,74.78"/>
    </edge>
    <edge id=":gneJ35_7" function="internal">
        <lane id=":gneJ35_7_0" index="0" speed="12.21" length="52.20" shape="79.72,90.27 102.29,87.99 116.54,84.29 122.47,79.18 120.09,72.64"/>
    </edge>

    <edge id="-gneE23" from="gneJ23" to="gneJ22" priority="-1">
        <lane id="-gneE23_0" index="0" speed="13.89" length="12.93" shape="-76.46,89.29 -87.84,83.15"/>
        <lane id="-gneE23_1" index="1" speed="13.89" length="12.93" shape="-74.94,86.47 -86.32,80.33"/>
    </edge>
    <edge id="-gneE24" from="gneJ23" to="gneJ24" priority="-1">
        <lane id="-gneE24_0" index="0" speed="19.89" length="16.39" shape="-70.73,80.98 -54.89,76.78"/>
        <lane id="-gneE24_1" index="1" speed="19.89" length="16.39" shape="-69.91,84.07 -54.07,79.87"/>
    </edge>
    <edge id="-gneE25" from="gneJ24" to="gneJ25" priority="-1">
        <lane id="-gneE25_0" index="0" speed="3.89" length="29.12" shape="-34.56,73.81 -5.43,73.81"/>
        <lane id="-gneE25_1" index="1" speed="3.89" length="29.12" shape="-34.56,77.01 -5.43,77.01"/>
    </edge>
    <edge id="-gneE26" from="gneJ25" to="gneJ26" priority="-1">
        <lane id="-gneE26_0" index="0" speed="1.89" length="0.20" shape="24.50,74.15 24.70,74.16"/>
        <lane id="-gneE26_1" index="1" speed="1.89" length="0.20" shape="24.46,77.35 24.66,77.36"/>
    </edge>
    <edge id="-gneE27" from="gneJ26" to="gneJ27" priority="-1">
        <lane id="-gneE27_0" index="0" speed="13.89" length="1.05" shape="57.70,87.67 58.65,88.11"/>
        <lane id="-gneE27_1" index="1" speed="13.89" length="1.05" shape="56.35,90.57 57.30,91.01"/>
    </edge>
    <edge id="-gneE28" from="gneJ26" to="gneJ28" priority="-1">
        <lane id="-gneE28_0" index="0" speed="3.89" length="17.14" shape="58.38,73.21 75.52,72.65"/>
        <lane id="-gneE28_1" index="1" speed="3.89" length="17.14" shape="58.48,76.41 75.62,75.85"/>
    </edge>
    <edge id="-gneE33" from="gneJ31" to="gneJ25" priority="-1">
        <lane id="-gneE33_0" index="0" speed="13.89" length="28.60" shape="50.00,54.37 25.49,69.10"/>
        <lane id="-gneE33_1" index="1" speed="13.89" length="28.60" shape="48.36,51.62 23.84,66.36"/>
    </edge>
    <edge id="-gneE35" from="gneJ22" to="gneJ33" priority="-1">
        <lane id="-gneE35_0" index="0" speed="13.89" length="30.58" shape="-89.45,64.49 -65.42,45.58"/>
        <lane id="-gneE35_1" index="1" speed="13.89" length="30.58" shape="-87.47,67.00 -63.44,48.09"/>
    </edge>
    <edge id="-gneE36" from="gneJ33" to="gneJ24" priority="-1">
        <lane id="-gneE36_0" index="0" speed="2.00" length="17.05" shape="-47.94,50.62 -42.22,66.68"/>
        <lane id="-gneE36_1" index="1" speed="2.00" length="17.05" shape="-50.95,51.69 -45.24,67.75"/>
    </edge>
    <edge id="-gneE37" from="gneJ34" to="gneJ31" priority="-1">
        <lane id="-gneE37_0" index="0" speed="13.89" length="47.51" shape="98.33,54.09 50.83,54.14"/>
        <lane id="-gneE37_1" index="1" speed="13.89" length="47.51" shape="98.33,50.89 50.82,50.94"/>
    </edge>
    <edge id="-gneE38" from="gneJ34" to="gneJ35" priority="-1">
        <lane id="-gneE38_0" index="0" speed="13.89" length="27.15" shape="106.65,48.19 124.84,68.35"/>
        <lane id="-gneE38_1" index="1" speed="13.89" length="27.15" shape="104.28,50.33 122.47,70.49"/>
    </edge>
    <edge id="-gneE39" from="gneJ35" to="gneJ28" priority="-1">
        <lane id="-gneE39_0" index="0" speed="13.89" length="3.69" shape="79.79,82.94 76.17,82.28"/>
        <lane id="-gneE39_1" index="1" speed="13.89" length="3.69" shape="80.37,79.80 76.75,79.13"/>
    </edge>
    <edge id="-gneE40" from="gneJ35" to="gneJ27" priority="-1">
        <lane id="-gneE40_0" index="0" speed="13.89" length="20.15" shape="80.10,96.66 59.98,97.84"/>
        <lane id="-gneE40_1" index="1" speed="13.89" length="20.15" shape="79.91,93.46 59.79,94.64"/>
    </edge>
    <edge id="gneE23" from="gneJ22" to="gneJ23" priority="-1">
        <lane id="gneE23_0" index="0" speed="13.89" length="12.93" shape="-83.28,74.70 -71.90,80.84"/>
        <lane id="gneE23_1" index="1" speed="13.89" length="12.93" shape="-84.80,77.51 -73.42,83.66"/>
    </edge>
    <edge id="gneE24" from="gneJ24" to="gneJ23" priority="-1">
        <lane id="gneE24_0" index="0" speed="13.89" length="16.39" shape="-52.43,86.06 -68.27,90.26"/>
        <lane id="gneE24_1" index="1" speed="13.89" length="16.39" shape="-53.25,82.96 -69.09,87.17"/>
    </edge>
    <edge id="gneE25" from="gneJ25" to="gneJ24" priority="-1">
        <lane id="gneE25_0" index="0" speed="13.89" length="29.12" shape="-5.43,83.41 -34.56,83.41"/>
        <lane id="gneE25_1" index="1" speed="13.89" length="29.12" shape="-5.43,80.21 -34.56,80.21"/>
    </edge>
    <edge id="gneE26" from="gneJ26" to="gneJ25" priority="-1">
        <lane id="gneE26_0" index="0" speed="13.89" length="0.20" shape="24.56,83.76 24.36,83.75"/>
        <lane id="gneE26_1" index="1" speed="13.89" length="0.20" shape="24.61,80.56 24.41,80.55"/>
    </edge>
    <edge id="gneE27" from="gneJ27" to="gneJ26" priority="-1">
        <lane id="gneE27_0" index="0" speed="13.89" length="1.05" shape="54.61,96.81 53.65,96.37"/>
        <lane id="gneE27_1" index="1" speed="13.89" length="1.05" shape="55.95,93.91 55.00,93.47"/>
    </edge>
    <edge id="gneE28" from="gneJ28" to="gneJ26" priority="-1">
        <lane id="gneE28_0" index="0" speed="13.89" length="17.14" shape="75.83,82.25 58.69,82.80"/>
        <lane id="gneE28_1" index="1" speed="13.89" length="17.14" shape="75.72,79.05 58.59,79.60"/>
    </edge>
    <edge id="gneE33" from="gneJ25" to="gneJ31" priority="-1">
        <lane id="gneE33_0" index="0" speed="3.89" length="28.60" shape="20.54,60.87 45.06,46.14"/>
        <lane id="gneE33_1" index="1" speed="3.89" length="28.60" shape="22.19,63.61 46.71,48.88"/>
    </edge>
    <edge id="gneE35" from="gneJ33" to="gneJ22" priority="-1">
        <lane id="gneE35_0" index="0" speed="13.89" length="30.58" shape="-59.48,53.12 -83.51,72.03"/>
        <lane id="gneE35_1" index="1" speed="13.89" length="30.58" shape="-61.46,50.61 -85.49,69.52"/>
    </edge>
    <edge id="gneE36" from="gneJ24" to="gneJ33" priority="-1">
        <lane id="gneE36_0" index="0" speed="13.89" length="17.05" shape="-51.27,69.90 -56.98,53.84"/>
        <lane id="gneE36_1" index="1" speed="13.89" length="17.05" shape="-48.25,68.83 -53.97,52.77"/>
    </edge>
    <edge id="gneE37" from="gneJ31" to="gneJ34" priority="-1">
        <lane id="gneE37_0" index="0" speed="3.89" length="47.51" shape="50.82,44.54 98.32,44.49"/>
        <lane id="gneE37_1" index="1" speed="3.89" length="47.51" shape="50.82,47.74 98.33,47.69"/>
    </edge>
    <edge id="gneE38" from="gneJ35" to="gneJ34" priority="-1">
        <lane id="gneE38_0" index="0" speed="13.89" length="27.15" shape="117.72,74.78 99.52,54.62"/>
        <lane id="gneE38_1" index="1" speed="13.89" length="27.15" shape="120.09,72.64 101.90,52.48"/>
    </edge>
    <edge id="gneE39" from="gneJ28" to="gneJ35" priority="-1">
        <lane id="gneE39_0" index="0" speed="13.89" length="3.69" shape="77.91,72.83 81.53,73.50"/>
        <lane id="gneE39_1" index="1" speed="13.89" length="3.69" shape="77.33,75.98 80.95,76.65"/>
    </edge>
    <edge id="gneE40" from="gneJ27" to="gneJ35" priority="-1">
        <lane id="gneE40_0" index="0" speed="13.89" length="20.15" shape="59.42,88.25 79.54,87.07"/>
        <lane id="gneE40_1" index="1" speed="13.89" length="20.15" shape="59.60,91.45 79.72,90.27"/>
    </edge>

    <junction id="gneJ22" type="priority" x="-94.14" y="74.29" incLanes="-gneE23_0 -gneE23_1 gneE35_0 gneE35_1" intLanes=":gneJ22_0_0 :gneJ22_1_0 :gneJ22_2_0 :gneJ22_3_0" shape="-88.60,84.55 -82.52,73.29 -90.44,63.23 -94.64,67.17 -97.04,70.96 -97.64,74.59 -96.43,78.07 -93.42,81.39">
        <request index="0" response="0000" foes="0000" cont="0"/>
        <request index="1" response="0000" foes="0000" cont="0"/>
        <request index="2" response="0000" foes="0000" cont="0"/>
        <request index="3" response="0000" foes="0000" cont="0"/>
    </junction>
    <junction id="gneJ23" type="priority" x="-71.95" y="86.27" incLanes="gneE24_0 gneE24_1 gneE23_0 gneE23_1" intLanes=":gneJ23_0_0 :gneJ23_0_1 :gneJ23_2_0 :gneJ23_2_1" shape="-67.86,91.81 -71.14,79.43 -77.22,90.70 -75.40,91.64 -73.96,92.25 -72.69,92.54 -71.39,92.55 -69.85,92.30">
        <request index="0" response="0000" foes="0000" cont="0"/>
        <request index="1" response="0000" foes="0000" cont="0"/>
        <request index="2" response="0000" foes="0000" cont="0"/>
        <request index="3" response="0000" foes="0000" cont="0"/>
    </junction>
    <junction id="gneJ24" type="priority" x="-43.07" y="78.61" incLanes="gneE25_0 gneE25_1 -gneE36_0 -gneE36_1 -gneE24_0 -gneE24_1" intLanes=":gneJ24_0_0 :gneJ24_0_1 :gneJ24_8_0 :gneJ24_3_0 :gneJ24_4_0 :gneJ24_5_0 :gneJ24_6_0 :gneJ24_6_1" shape="-34.56,85.01 -34.56,72.21 -37.02,71.54 -38.10,70.69 -39.07,69.51 -39.94,68.00 -40.71,66.14 -52.77,70.44 -52.46,72.65 -52.73,73.52 -53.30,74.24 -54.15,74.81 -55.30,75.23 -52.02,87.60 -48.37,86.63 -45.66,85.93 -43.40,85.46 -41.11,85.18 -38.32,85.05">
        <request index="0" response="00000000" foes="00010000" cont="0"/>
        <request index="1" response="00000000" foes="00010000" cont="0"/>
        <request index="2" response="11000000" foes="11010000" cont="1"/>
        <request index="3" response="11000000" foes="11000000" cont="0"/>
        <request index="4" response="11000111" foes="11000111" cont="0"/>
        <request index="5" response="00000000" foes="00000000" cont="0"/>
        <request index="6" response="00000000" foes="00011100" cont="0"/>
        <request index="7" response="00000000" foes="00011100" cont="0"/>
    </junction>
    <junction id="gneJ25" type="priority" x="0.34" y="78.61" incLanes="gneE26_0 gneE26_1 -gneE33_0 -gneE33_1 -gneE25_0 -gneE25_1" intLanes=":gneJ25_0_0 :gneJ25_0_1 :gneJ25_2_0 :gneJ25_3_0 :gneJ25_4_0 :gneJ25_4_1 :gneJ25_6_0 :gneJ25_7_0 :gneJ25_7_1" shape="26.70,85.39 26.88,72.59 26.31,70.47 19.72,59.50 14.64,62.96 10.96,66.02 7.90,68.58 4.66,70.53 0.48,71.77 -5.43,72.21 -5.43,85.01">
        <request index="0" response="000000000" foes="000110000" cont="0"/>
        <request index="1" response="000000000" foes="000110000" cont="0"/>
        <request index="2" response="000000000" foes="110110000" cont="0"/>
        <request index="3" response="000000000" foes="110000000" cont="0"/>
        <request index="4" response="000000111" foes="110000111" cont="0"/>
        <request index="5" response="000000111" foes="110000111" cont="0"/>
        <request index="6" response="000000000" foes="000000000" cont="0"/>
        <request index="7" response="000111100" foes="000111100" cont="0"/>
        <request index="8" response="000111100" foes="000111100" cont="0"/>
    </junction>
    <junction id="gneJ26" type="priority" x="27.64" y="79.00" incLanes="gneE27_0 gneE27_1 gneE28_0 gneE28_1 -gneE26_0 -gneE26_1" intLanes=":gneJ26_0_0 :gneJ26_0_1 :gneJ26_2_0 :gneJ26_3_0 :gneJ26_4_0 :gneJ26_4_1 :gneJ26_6_0 :gneJ26_6_1 :gneJ26_8_0" shape="52.98,97.82 58.37,86.21 58.74,84.40 58.33,71.61 22.37,72.52 22.18,85.32 29.19,85.85 34.20,87.11 38.16,89.04 41.99,91.52 46.62,94.48">
        <request index="0" response="000000000" foes="000110000" cont="0"/>
        <request index="1" response="000000000" foes="000110000" cont="0"/>
        <request index="2" response="000000000" foes="111110000" cont="0"/>
        <request index="3" response="000000000" foes="000000000" cont="0"/>
        <request index="4" response="000000111" foes="100000111" cont="0"/>
        <request index="5" response="000000111" foes="100000111" cont="0"/>
        <request index="6" response="000000100" foes="000000100" cont="0"/>
        <request index="7" response="000000100" foes="000000100" cont="0"/>
        <request index="8" response="000110100" foes="000110100" cont="0"/>
    </junction>
    <junction id="gneJ27" type="priority" x="58.09" y="93.14" incLanes="-gneE40_0 -gneE40_1 -gneE27_0 -gneE27_1" intLanes=":gneJ27_0_0 :gneJ27_0_1 :gneJ27_2_0 :gneJ27_2_1" shape="60.07,99.43 59.32,86.66 53.93,98.27 56.09,99.19 56.90,99.41 57.72,99.51 58.73,99.50">
        <request index="0" response="0000" foes="0000" cont="0"/>
        <request index="1" response="0000" foes="0000" cont="0"/>
        <request index="2" response="0000" foes="0000" cont="0"/>
        <request index="3" response="0000" foes="0000" cont="0"/>
    </junction>
    <junction id="gneJ28" type="priority" x="76.36" y="77.43" incLanes="-gneE39_0 -gneE39_1 -gneE28_0 -gneE28_1" intLanes=":gneJ28_0_0 :gneJ28_0_1 :gneJ28_2_0 :gneJ28_2_1" shape="75.88,83.85 78.20,71.26 77.20,71.09 76.84,71.05 76.48,71.03 76.05,71.04 75.46,71.06">
        <request index="0" response="0000" foes="0000" cont="0"/>
        <request index="1" response="0000" foes="0000" cont="0"/>
        <request index="2" response="0000" foes="0000" cont="0"/>
        <request index="3" response="0000" foes="0000" cont="0"/>
    </junction>
    <junction id="gneJ31" type="priority" x="49.05" y="49.34" incLanes="-gneE37_0 -gneE37_1 gneE33_0 gneE33_1" intLanes=":gneJ31_0_0 :gneJ31_0_1 :gneJ31_2_0 :gneJ31_2_1" shape="50.83,55.74 50.82,42.94 48.24,43.02 47.34,43.19 46.48,43.51 45.50,44.02 44.23,44.77">
        <request index="0" response="0000" foes="0000" cont="0"/>
        <request index="1" response="0000" foes="0000" cont="0"/>
        <request index="2" response="0000" foes="0000" cont="0"/>
        <request index="3" response="0000" foes="0000" cont="0"/>
    </junction>
    <junction id="gneJ33" type="priority" x="-55.45" y="43.84" incLanes="gneE36_0 gneE36_1 -gneE35_0 -gneE35_1" intLanes=":gneJ33_0_0 :gneJ33_1_0 :gneJ33_2_0 :gneJ33_3_0" shape="-58.49,54.38 -46.43,50.08 -48.65,45.26 -51.31,41.99 -54.41,40.25 -57.97,40.06 -61.96,41.42 -66.41,44.32">
        <request index="0" response="0000" foes="0000" cont="0"/>
        <request index="1" response="0000" foes="0000" cont="0"/>
        <request index="2" response="0000" foes="0000" cont="0"/>
        <request index="3" response="0000" foes="0000" cont="0"/>
    </junction>
    <junction id="gneJ34" type="priority" x="101.18" y="49.29" incLanes="gneE38_0 gneE38_1 gneE37_0 gneE37_1" intLanes=":gneJ34_0_0 :gneJ34_1_0 :gneJ34_2_0 :gneJ34_3_0" shape="98.34,55.69 107.84,47.12 105.08,44.77 103.55,43.95 101.91,43.36 100.17,43.01 98.32,42.89">
        <request index="0" response="0000" foes="0000" cont="0"/>
        <request index="1" response="0000" foes="0000" cont="0"/>
        <request index="2" response="0000" foes="0000" cont="0"/>
        <request index="3" response="0000" foes="0000" cont="0"/>
    </junction>
    <junction id="gneJ35" type="priority" x="136.59" y="88.54" incLanes="-gneE38_0 -gneE38_1 gneE39_0 gneE39_1 gneE40_0 gneE40_1" intLanes=":gneJ35_0_0 :gneJ35_1_0 :gneJ35_8_0 :gneJ35_3_0 :gneJ35_4_0 :gneJ35_5_0 :gneJ35_6_0 :gneJ35_7_0" shape="126.03,67.28 116.53,75.85 112.76,76.72 107.17,76.14 99.80,75.06 91.18,73.61 81.82,71.93 79.50,84.52 79.44,85.48 80.19,98.26 100.93,96.25 116.43,92.99 126.69,88.46 131.71,82.66 131.49,75.60">
        <request index="0" response="00000000" foes="00010000" cont="0"/>
        <request index="1" response="00000000" foes="00010000" cont="0"/>
        <request index="2" response="11000000" foes="11010000" cont="1"/>
        <request index="3" response="11000000" foes="11000000" cont="0"/>
        <request index="4" response="11000111" foes="11000111" cont="0"/>
        <request index="5" response="00000000" foes="00000000" cont="0"/>
        <request index="6" response="00000000" foes="00011100" cont="0"/>
        <request index="7" response="00000000" foes="00011100" cont="0"/>
    </junction>

    <junction id=":gneJ24_8_0" type="internal" x="-40.42" y="78.71" incLanes=":gneJ24_2_0 -gneE24_0 -gneE24_1" intLanes=":gneJ24_4_0 :gneJ24_6_0 :gneJ24_6_1"/>
    <junction id=":gneJ35_8_0" type="internal" x="123.25" y="80.62" incLanes=":gneJ35_2_0 gneE40_0 gneE40_1" intLanes=":gneJ35_4_0 :gneJ35_6_0 :gneJ35_7_0"/>

    <connection from="-gneE23" to="-gneE35" fromLane="0" toLane="0" via=":gneJ22_0_0" dir="l" state="M"/>
    <connection from="-gneE23" to="-gneE35" fromLane="1" toLane="1" via=":gneJ22_1_0" dir="l" state="M"/>
    <connection from="-gneE24" to="gneE36" fromLane="0" toLane="0" via=":gneJ24_5_0" dir="r" state="M"/>
    <connection from="-gneE24" to="-gneE25" fromLane="0" toLane="0" via=":gneJ24_6_0" dir="s" state="M"/>
    <connection from="-gneE24" to="-gneE25" fromLane="1" toLane="1" via=":gneJ24_6_1" dir="s" state="M"/>
    <connection from="-gneE25" to="gneE33" fromLane="0" toLane="0" via=":gneJ25_6_0" dir="R" state="M"/>
    <connection from="-gneE25" to="-gneE26" fromLane="0" toLane="0" via=":gneJ25_7_0" dir="s" state="m"/>
    <connection from="-gneE25" to="-gneE26" fromLane="1" toLane="1" via=":gneJ25_7_1" dir="s" state="m"/>
    <connection from="-gneE26" to="-gneE28" fromLane="0" toLane="0" via=":gneJ26_6_0" dir="s" state="m"/>
    <connection from="-gneE26" to="-gneE28" fromLane="1" toLane="1" via=":gneJ26_6_1" dir="s" state="m"/>
    <connection from="-gneE26" to="-gneE27" fromLane="1" toLane="1" via=":gneJ26_8_0" dir="L" state="m"/>
    <connection from="-gneE27" to="gneE40" fromLane="0" toLane="0" via=":gneJ27_2_0" dir="s" state="M"/>