<configuration>

    <input>

        <net-file value="newedit.net.xml"/>
        <route-files value ="newedit.rou.xml"/>
        <additional-files value = "additional.xml"/>
    </input>
    <time>
        <begin value = "0"/>
        <end value = "5000000"/>
    </time>
</configuration>




