<?xml version="1.0" encoding="UTF-8"?>
<!-- generated on 2020-02-14 15:00:16.377329 by randomTrip.py UNKNOWN
  options: -n newedit.net.xml -r newedit.rou.xml -e 10 -l
-->
<routes xmlns:xsi="http://www.w3.org/2001/XMLSchema-instance" xsi:noNamespaceSchemaLocation="http://sumo.dlr.de/xsd/routes_file.xsd">
    <trip id="0" depart="0.00" from="-gneE36" to="gneE33"/>
    <trip id="1" depart="1.00" from="gneE35" to="-gneE28"/>
    <trip id="2" depart="2.00" from="-gneE35" to="gneE35"/>
    <trip id="3" depart="3.00" from="-gneE24" to="-gneE25"/>
    <trip id="4" depart="4.00" from="gneE25" to="-gneE36"/>
    <trip id="5" depart="5.00" from="gneE25" to="-gneE28"/>
    <trip id="6" depart="6.00" from="-gneE25" to="-gneE24"/>
    <trip id="7" depart="7.00" from="-gneE25" to="gneE33"/>
    <trip id="8" depart="8.00" from="gneE23" to="-gneE28"/>
    <trip id="9" depart="9.00" from="gneE23" to="gneE33"/>
</routes>
